/*--------------------------------*- C++ -*----------------------------------*\
| =========                 |                                                 |
| \\      /  F ield         | OpenFOAM: The Open Source CFD Toolbox           |
|  \\    /   O peration     | Version:  v2306                                 |
|   \\  /    A nd           | Website:  www.openfoam.com                      |
|    \\/     M anipulation  |                                                 |
\*---------------------------------------------------------------------------*/
FoamFile
{
    version     2.0;
    format      ascii;
    class       volScalarField;
    object      T;
}
// * * * * * * * * * * * * * * * * * * * * * * * * * * * * * * * * * * * * * //

dimensions      [0 0 0 1 0 0 0];

internalField   uniform 152.515;

boundaryField
{
    inlet1
    {
	type            totalTemperature;

        T0              uniform 300.15;

	U		U;
	
	psi		thermo:psi;
	phi		phi;
	gamma		1.4;

    }
    
    outlet1
    {
        type            zeroGradient;
    }

    outlet2
    {
        type            zeroGradient;
    }
    
    "(wall1|wall2).*"
    {
        type            zeroGradient;
    }

    top
    {
        type            zeroGradient;
    }

    
    bottom
    {
        type            zeroGradient;
    }
    

    defaultFaces
    {
        type            empty;
    }
}


// ************************************************************************* //
