/*--------------------------------*- C++ -*----------------------------------*\
| =========                 |                                                 |
| \\      /  F ield         | OpenFOAM: The Open Source CFD Toolbox           |
|  \\    /   O peration     | Version:  v2306                                 |
|   \\  /    A nd           | Website:  www.openfoam.com                      |
|    \\/     M anipulation  |                                                 |
\*---------------------------------------------------------------------------*/
FoamFile
{
    version     2.0;
    format      ascii;
    class       volScalarField;
    object      p;
}
// * * * * * * * * * * * * * * * * * * * * * * * * * * * * * * * * * * * * * //

dimensions      [1 -1 -2 0 0 0 0];

internalField   uniform 5000;

boundaryField
{
    inlet1
    {
   	    type            totalPressure;

    	psi             thermo:psi;

    	gamma           1.4;

    	p0              uniform 340000;

    	value           uniform 340000;
	
	    U		        U;

    }     

    outlet1
    {
        type            fixedValue;
	value 		uniform 340000;
    }


    /*outlet1
    {
        type            waveTransmissive; // used for just the open exit case
	gamma		1.4;
    }*/

    outlet2
    {
        type            zeroGradient;
    }

    "(wall1|wall2).*"
    {
        type            zeroGradient;
    }

    top
    {
        type            zeroGradient;
    }

    bottom
    {
        type            zeroGradient;
    }
    
    defaultFaces
    {
        type            empty;
    }
}


// ************************************************************************* //
